XFLR5 v6.09.01 beta

 Calculated polar for: E205  (10.48%)

 1 1 Reynolds number fixed          Mach number fixed         

 xtrf =   1.000 (top)        1.000 (bottom)
 Mach =   0.000     Re =     0.140 e 6     Ncrit =   9.000

  alpha     CL        CD       CDp       Cm    Top Xtr Bot Xtr   Cpmin    Chinge    XCp    
 ------- -------- --------- --------- -------- ------- ------- -------- --------- ---------
   1.000   0.4494   0.01300   0.00584  -0.0643  0.6688  1.0000  -0.7294   0.0000   0.3914
   2.000   0.5465   0.01394   0.00647  -0.0615  0.6360  1.0000  -0.8177   0.0000   0.3600
   3.000   0.6421   0.01506   0.00766  -0.0590  0.6082  1.0000  -0.9341   0.0000   0.3386
   4.000   0.7387   0.01643   0.00900  -0.0563  0.5779  1.0000  -1.1098   0.0000   0.3220
   5.000   0.8366   0.01682   0.00964  -0.0533  0.5452  1.0000  -1.3804   0.0000   0.3085
   6.000   0.9295   0.01496   0.00723  -0.0472  0.4482  1.0000  -1.9874   0.0000   0.2943
   7.000   1.0168   0.01575   0.00783  -0.0427  0.3528  1.0000  -2.7257   0.0000   0.2843
   8.000   1.0458   0.02155   0.01157  -0.0320  0.0498  1.0000  -3.3078   0.0000   0.2717
   9.000   1.0862   0.02618   0.01695  -0.0225  0.0202  1.0000  -3.9179   0.0000   0.2605
  10.000   1.0892   0.03303   0.02453  -0.0119  0.0177  1.0000  -4.2444   0.0000   0.2492
  11.000   1.1038   0.04210   0.03422  -0.0052  0.0175  1.0000  -4.5505   0.0000   0.2414
  12.000   1.1256   0.05464   0.04779   0.0001  0.0189  1.0000  -4.7351   0.0000   0.2352
  13.000   1.0830   0.07239   0.06656  -0.0012  0.0202  1.0000  -4.6169   0.0000   0.2347
  14.000   1.0124   0.09611   0.09108  -0.0118  0.0209  1.0000  -4.3113   0.0000   0.2438
  15.000   0.9335   0.12837   0.12389  -0.0329  0.0213  1.0000  -3.7224   0.0000   0.2664


