XFLR5 v6.09.01 beta

 Calculated polar for: E205  (10.48%)

 1 1 Reynolds number fixed          Mach number fixed         

 xtrf =   1.000 (top)        1.000 (bottom)
 Mach =   0.000     Re =     0.130 e 6     Ncrit =   9.000

  alpha     CL        CD       CDp       Cm    Top Xtr Bot Xtr   Cpmin    Chinge    XCp    
 ------- -------- --------- --------- -------- ------- ------- -------- --------- ---------
   1.000   0.4502   0.01368   0.00631  -0.0649  0.6771  1.0000  -0.7275   0.0000   0.3925
   2.000   0.5461   0.01446   0.00690  -0.0620  0.6448  1.0000  -0.8150   0.0000   0.3612
   3.000   0.6407   0.01595   0.00840  -0.0595  0.6164  1.0000  -0.9304   0.0000   0.3396
   4.000   0.7379   0.01724   0.00960  -0.0566  0.5844  1.0000  -1.1067   0.0000   0.3226
   5.000   0.8329   0.01794   0.01070  -0.0535  0.5518  1.0000  -1.3694   0.0000   0.3091
   6.000   0.9294   0.01584   0.00809  -0.0476  0.4653  1.0000  -1.9824   0.0000   0.2948
   7.000   1.0174   0.01624   0.00831  -0.0429  0.3739  1.0000  -2.7195   0.0000   0.2845
   8.000   1.0777   0.01930   0.01092  -0.0355  0.1869  1.0000  -3.5795   0.0000   0.2740
   9.000   1.0818   0.02680   0.01741  -0.0221  0.0221  1.0000  -3.8888   0.0000   0.2602
  10.000   1.0838   0.03383   0.02519  -0.0116  0.0192  1.0000  -4.1960   0.0000   0.2490
  11.000   1.0998   0.04294   0.03491  -0.0050  0.0186  1.0000  -4.5011   0.0000   0.2412
  12.000   1.1220   0.05555   0.04853   0.0001  0.0197  1.0000  -4.6944   0.0000   0.2352
  13.000   1.0790   0.07333   0.06733  -0.0013  0.0208  1.0000  -4.5814   0.0000   0.2349
  14.000   1.0082   0.09711   0.09191  -0.0121  0.0215  1.0000  -4.2715   0.0000   0.2441
  15.000   0.9292   0.12929   0.12463  -0.0331  0.0220  1.0000  -3.6715   0.0000   0.2668


