XFLR5 v6.09.01 beta

 Calculated polar for: E205  (10.48%)

 1 1 Reynolds number fixed          Mach number fixed         

 xtrf =   1.000 (top)        1.000 (bottom)
 Mach =   0.000     Re =     0.120 e 6     Ncrit =   9.000

  alpha     CL        CD       CDp       Cm    Top Xtr Bot Xtr   Cpmin    Chinge    XCp    
 ------- -------- --------- --------- -------- ------- ------- -------- --------- ---------
   0.000   0.3559   0.01329   0.00603  -0.0685  0.7211  1.0000  -0.6538   0.0000   0.4420
   1.000   0.4510   0.01420   0.00664  -0.0656  0.6869  1.0000  -0.7260   0.0000   0.3939
   2.000   0.5451   0.01536   0.00767  -0.0628  0.6538  1.0000  -0.8110   0.0000   0.3629
   3.000   0.6398   0.01698   0.00920  -0.0601  0.6253  1.0000  -0.9270   0.0000   0.3407
   4.000   0.7356   0.01797   0.01025  -0.0571  0.5936  1.0000  -1.1006   0.0000   0.3235
   5.000   0.8285   0.01933   0.01197  -0.0539  0.5596  1.0000  -1.3565   0.0000   0.3099
   6.000   0.9304   0.01716   0.00929  -0.0484  0.4865  1.0000  -1.9782   0.0000   0.2957
   7.000   1.0167   0.01687   0.00882  -0.0429  0.3903  1.0000  -2.7082   0.0000   0.2845
   8.000   1.0841   0.01923   0.01111  -0.0362  0.2287  1.0000  -3.6120   0.0000   0.2744
   9.000   1.0820   0.02717   0.01760  -0.0224  0.0255  1.0000  -3.9098   0.0000   0.2604
  10.000   1.0771   0.03476   0.02597  -0.0114  0.0208  1.0000  -4.1444   0.0000   0.2488
  11.000   1.0943   0.04391   0.03573  -0.0048  0.0199  1.0000  -4.4461   0.0000   0.2411
  12.000   1.1170   0.05665   0.04945   0.0001  0.0207  1.0000  -4.6454   0.0000   0.2352
  13.000   1.0736   0.07462   0.06843  -0.0014  0.0216  1.0000  -4.5301   0.0000   0.2350
  14.000   1.0015   0.09870   0.09330  -0.0124  0.0222  1.0000  -4.2023   0.0000   0.2446


