XFLR5 v6.09.01 beta

 Calculated polar for: E205  (10.48%)

 1 1 Reynolds number fixed          Mach number fixed         

 xtrf =   1.000 (top)        1.000 (bottom)
 Mach =   0.000     Re =     0.110 e 6     Ncrit =   9.000

  alpha     CL        CD       CDp       Cm    Top Xtr Bot Xtr   Cpmin    Chinge    XCp    
 ------- -------- --------- --------- -------- ------- ------- -------- --------- ---------
   0.000   0.3578   0.01394   0.00644  -0.0696  0.7325  1.0000  -0.6527   0.0000   0.4439
   1.000   0.4512   0.01505   0.00736  -0.0669  0.6979  1.0000  -0.7223   0.0000   0.3967
   2.000   0.5440   0.01645   0.00856  -0.0638  0.6647  1.0000  -0.8068   0.0000   0.3648
   3.000   0.6395   0.01800   0.00996  -0.0608  0.6343  1.0000  -0.9241   0.0000   0.3418
   4.000   0.7303   0.01949   0.01166  -0.0577  0.6023  1.0000  -1.0892   0.0000   0.3250
   5.000   0.8243   0.02093   0.01339  -0.0544  0.5691  1.0000  -1.3433   0.0000   0.3109
   6.000   0.9242   0.01994   0.01235  -0.0497  0.5148  1.0000  -1.9344   0.0000   0.2976
   7.000   1.0163   0.01771   0.00971  -0.0431  0.4078  1.0000  -2.6952   0.0000   0.2849
   8.000   1.0919   0.01929   0.01158  -0.0371  0.2858  1.0000  -3.6453   0.0000   0.2751
   9.000   1.0837   0.02746   0.01785  -0.0228  0.0319  1.0000  -3.9373   0.0000   0.2608
  10.000   1.0672   0.03604   0.02705  -0.0111  0.0226  1.0000  -4.0722   0.0000   0.2486
  11.000   1.0875   0.04510   0.03672  -0.0046  0.0213  1.0000  -4.3828   0.0000   0.2409
  12.000   1.1112   0.05815   0.05075   0.0002  0.0218  1.0000  -4.5817   0.0000   0.2352
  13.000   1.0653   0.07684   0.07044  -0.0016  0.0225  1.0000  -4.4376   0.0000   0.2353
  14.000   1.0091   0.09828   0.09267  -0.0109  0.0234  1.0000  -4.2348   0.0000   0.2430
  15.000   0.9528   0.12435   0.11931  -0.0282  0.0244  1.0000  -3.8897   0.0000   0.2606


