XFLR5 v6.09.01 beta

 Calculated polar for: E205  (10.48%)

 1 1 Reynolds number fixed          Mach number fixed         

 xtrf =   1.000 (top)        1.000 (bottom)
 Mach =   0.000     Re =     0.170 e 6     Ncrit =   9.000

  alpha     CL        CD       CDp       Cm    Top Xtr Bot Xtr   Cpmin    Chinge    XCp    
 ------- -------- --------- --------- -------- ------- ------- -------- --------- ---------
   0.000   0.3509   0.01099   0.00439  -0.0653  0.6772  1.0000  -0.6599   0.0000   0.4353
   1.000   0.4484   0.01149   0.00469  -0.0628  0.6467  1.0000  -0.7353   0.0000   0.3883
   2.000   0.5463   0.01239   0.00542  -0.0605  0.6174  1.0000  -0.8217   0.0000   0.3582
   3.000   0.6451   0.01324   0.00611  -0.0580  0.5884  1.0000  -0.9426   0.0000   0.3366
   4.000   0.7422   0.01413   0.00729  -0.0555  0.5604  1.0000  -1.1201   0.0000   0.3206
   5.000   0.8399   0.01419   0.00722  -0.0521  0.5170  1.0000  -1.3984   0.0000   0.3068
   6.000   0.9307   0.01355   0.00608  -0.0470  0.4218  1.0000  -1.9946   0.0000   0.2940
   7.000   1.0118   0.01502   0.00697  -0.0420  0.2836  1.0000  -2.7270   0.0000   0.2838
   8.000   1.0397   0.02131   0.01141  -0.0313  0.0186  1.0000  -3.2996   0.0000   0.2712
   9.000   1.0937   0.02487   0.01601  -0.0234  0.0156  1.0000  -3.9885   0.0000   0.2611
  10.000   1.1005   0.03126   0.02309  -0.0127  0.0144  1.0000  -4.3738   0.0000   0.2498
  11.000   1.1119   0.04009   0.03250  -0.0061  0.0148  1.0000  -4.6975   0.0000   0.2422
  12.000   1.1351   0.05248   0.04599  -0.0001  0.0170  1.0000  -4.8432   0.0000   0.2353
  13.000   1.0907   0.07063   0.06521  -0.0008  0.0189  1.0000  -4.6756   0.0000   0.2344
  14.000   1.0190   0.09451   0.08989  -0.0115  0.0197  1.0000  -4.3617   0.0000   0.2433
  15.000   0.9398   0.12703   0.12297  -0.0326  0.0199  1.0000  -3.7857   0.0000   0.2659


