XFLR5 v6.09.01 beta

 Calculated polar for: E205  (10.48%)

 1 1 Reynolds number fixed          Mach number fixed         

 xtrf =   1.000 (top)        1.000 (bottom)
 Mach =   0.000     Re =     0.190 e 6     Ncrit =   9.000

  alpha     CL        CD       CDp       Cm    Top Xtr Bot Xtr   Cpmin    Chinge    XCp    
 ------- -------- --------- --------- -------- ------- ------- -------- --------- ---------
   0.000   0.3498   0.01030   0.00397  -0.0647  0.6662  1.0000  -0.6614   0.0000   0.4341
   1.000   0.4481   0.01110   0.00442  -0.0624  0.6319  1.0000  -0.7374   0.0000   0.3874
   2.000   0.5467   0.01153   0.00478  -0.0600  0.6067  1.0000  -0.8245   0.0000   0.3572
   3.000   0.6455   0.01257   0.00568  -0.0578  0.5783  1.0000  -0.9447   0.0000   0.3361
   4.000   0.7443   0.01303   0.00634  -0.0553  0.5507  1.0000  -1.1259   0.0000   0.3199
   5.000   0.8397   0.01269   0.00562  -0.0511  0.4898  1.0000  -1.4067   0.0000   0.3054
   6.000   0.9308   0.01290   0.00554  -0.0470  0.4019  1.0000  -1.9961   0.0000   0.2939
   7.000   1.0042   0.01514   0.00684  -0.0411  0.2211  1.0000  -2.7060   0.0000   0.2832
   8.000   1.0407   0.02089   0.01118  -0.0314  0.0146  1.0000  -3.3139   0.0000   0.2712
   9.000   1.0945   0.02440   0.01576  -0.0234  0.0135  1.0000  -3.9913   0.0000   0.2611
  10.000   1.1000   0.03090   0.02292  -0.0126  0.0129  1.0000  -4.3758   0.0000   0.2498
  11.000   1.1149   0.03930   0.03188  -0.0064  0.0135  1.0000  -4.7590   0.0000   0.2424
  12.000   1.1407   0.05138   0.04508  -0.0001  0.0163  1.0000  -4.9022   0.0000   0.2353
  13.000   1.0933   0.07005   0.06488  -0.0007  0.0186  1.0000  -4.6822   0.0000   0.2343
  14.000   1.0201   0.09415   0.08976  -0.0114  0.0195  1.0000  -4.3586   0.0000   0.2432
  15.000   0.9412   0.12673   0.12289  -0.0326  0.0195  1.0000  -3.7926   0.0000   0.2658


