XFLR5 v6.09.01 beta

 Calculated polar for: E205  (10.48%)

 1 1 Reynolds number fixed          Mach number fixed         

 xtrf =   1.000 (top)        1.000 (bottom)
 Mach =   0.000     Re =     0.150 e 6     Ncrit =   9.000

  alpha     CL        CD       CDp       Cm    Top Xtr Bot Xtr   Cpmin    Chinge    XCp    
 ------- -------- --------- --------- -------- ------- ------- -------- --------- ---------
   0.000   0.3521   0.01159   0.00478  -0.0660  0.6922  1.0000  -0.6582   0.0000   0.4368
   1.000   0.4490   0.01242   0.00541  -0.0637  0.6605  1.0000  -0.7314   0.0000   0.3902
   2.000   0.5462   0.01350   0.00620  -0.0611  0.6289  1.0000  -0.8188   0.0000   0.3594
   3.000   0.6434   0.01428   0.00700  -0.0586  0.6012  1.0000  -0.9376   0.0000   0.3378
   4.000   0.7397   0.01556   0.00830  -0.0560  0.5719  1.0000  -1.1132   0.0000   0.3214
   5.000   0.8391   0.01604   0.00888  -0.0531  0.5374  1.0000  -1.3885   0.0000   0.3080
   6.000   0.9297   0.01443   0.00670  -0.0470  0.4381  1.0000  -1.9901   0.0000   0.2941
   7.000   1.0156   0.01540   0.00745  -0.0425  0.3330  1.0000  -2.7287   0.0000   0.2841
   8.000   1.0672   0.01955   0.01081  -0.0345  0.1187  1.0000  -3.5133   0.0000   0.2734
   9.000   1.0894   0.02566   0.01658  -0.0229  0.0184  1.0000  -3.9435   0.0000   0.2607
  10.000   1.0941   0.03232   0.02394  -0.0122  0.0164  1.0000  -4.2937   0.0000   0.2494
  11.000   1.1072   0.04135   0.03358  -0.0055  0.0165  1.0000  -4.6002   0.0000   0.2417
  12.000   1.1289   0.05385   0.04713   0.0000  0.0182  1.0000  -4.7729   0.0000   0.2353
  13.000   1.0861   0.07166   0.06598  -0.0010  0.0196  1.0000  -4.6432   0.0000   0.2346
  14.000   1.0154   0.09540   0.09052  -0.0117  0.0204  1.0000  -4.3370   0.0000   0.2436
  15.000   0.9363   0.12777   0.12345  -0.0328  0.0208  1.0000  -3.7530   0.0000   0.2662


