XFLR5 v6.09.01 beta

 Calculated polar for: E205  (10.48%)

 1 1 Reynolds number fixed          Mach number fixed         

 xtrf =   1.000 (top)        1.000 (bottom)
 Mach =   0.000     Re =     0.160 e 6     Ncrit =   9.000

  alpha     CL        CD       CDp       Cm    Top Xtr Bot Xtr   Cpmin    Chinge    XCp    
 ------- -------- --------- --------- -------- ------- ------- -------- --------- ---------
   0.000   0.3515   0.01134   0.00460  -0.0656  0.6831  1.0000  -0.6593   0.0000   0.4358
   1.000   0.4487   0.01191   0.00502  -0.0632  0.6532  1.0000  -0.7334   0.0000   0.3892
   2.000   0.5462   0.01290   0.00578  -0.0608  0.6233  1.0000  -0.8203   0.0000   0.3587
   3.000   0.6445   0.01364   0.00645  -0.0583  0.5950  1.0000  -0.9406   0.0000   0.3371
   4.000   0.7408   0.01481   0.00769  -0.0557  0.5658  1.0000  -1.1166   0.0000   0.3210
   5.000   0.8395   0.01528   0.00822  -0.0527  0.5279  1.0000  -1.3930   0.0000   0.3075
   6.000   0.9301   0.01398   0.00637  -0.0470  0.4300  1.0000  -1.9921   0.0000   0.2940
   7.000   1.0142   0.01515   0.00717  -0.0423  0.3079  1.0000  -2.7300   0.0000   0.2840
   8.000   1.0394   0.02155   0.01154  -0.0313  0.0212  1.0000  -3.2906   0.0000   0.2712
   9.000   1.0920   0.02522   0.01627  -0.0232  0.0170  1.0000  -3.9695   0.0000   0.2610
  10.000   1.0979   0.03172   0.02344  -0.0125  0.0153  1.0000  -4.3397   0.0000   0.2497
  11.000   1.1098   0.04067   0.03300  -0.0058  0.0156  1.0000  -4.6501   0.0000   0.2419
  12.000   1.1321   0.05313   0.04653  -0.0000  0.0176  1.0000  -4.8090   0.0000   0.2353
  13.000   1.0887   0.07108   0.06554  -0.0009  0.0192  1.0000  -4.6626   0.0000   0.2345
  14.000   1.0175   0.09488   0.09013  -0.0115  0.0200  1.0000  -4.3532   0.0000   0.2434
  15.000   0.9383   0.12734   0.12315  -0.0327  0.0203  1.0000  -3.7731   0.0000   0.2660


