XFLR5 v6.09.01 beta

 Calculated polar for: E205  (10.48%)

 1 1 Reynolds number fixed          Mach number fixed         

 xtrf =   1.000 (top)        1.000 (bottom)
 Mach =   0.000     Re =     0.100 e 6     Ncrit =   9.000

  alpha     CL        CD       CDp       Cm    Top Xtr Bot Xtr   Cpmin    Chinge    XCp    
 ------- -------- --------- --------- -------- ------- ------- -------- --------- ---------
   0.000   0.3592   0.01482   0.00718  -0.0714  0.7458  1.0000  -0.6491   0.0000   0.4482
   1.000   0.4510   0.01621   0.00831  -0.0683  0.7111  1.0000  -0.7179   0.0000   0.4000
   2.000   0.5440   0.01769   0.00950  -0.0648  0.6770  1.0000  -0.8034   0.0000   0.3669
   3.000   0.6356   0.01921   0.01104  -0.0619  0.6456  1.0000  -0.9157   0.0000   0.3442
   4.000   0.7245   0.02135   0.01331  -0.0586  0.6132  1.0000  -1.0766   0.0000   0.3269
   5.000   0.8208   0.02280   0.01499  -0.0551  0.5791  1.0000  -1.3312   0.0000   0.3121
   6.000   0.9199   0.02281   0.01513  -0.0512  0.5367  1.0000  -1.9010   0.0000   0.2996
   7.000   1.0150   0.01882   0.01064  -0.0433  0.4256  1.0000  -2.6786   0.0000   0.2851
   8.000   1.0959   0.01993   0.01247  -0.0378  0.3342  1.0000  -3.6509   0.0000   0.2756
   9.000   1.0853   0.02777   0.01813  -0.0232  0.0444  1.0000  -3.9825   0.0000   0.2612
  10.000   1.0699   0.03630   0.02711  -0.0116  0.0256  1.0000  -4.1096   0.0000   0.2491
  11.000   1.0807   0.04674   0.03811  -0.0041  0.0227  1.0000  -4.3008   0.0000   0.2406
  12.000   1.1060   0.06071   0.05316   0.0004  0.0229  1.0000  -4.4842   0.0000   0.2351
  13.000   1.0827   0.07500   0.06829  -0.0005  0.0239  1.0000  -4.5645   0.0000   0.2342
  14.000   1.0278   0.09529   0.08944  -0.0093  0.0250  1.0000  -4.3846   0.0000   0.2412
  15.000   0.9349   0.13011   0.12498  -0.0326  0.0266  1.0000  -3.6385   0.0000   0.2662


