XFLR5 v6.09.01 beta

 Calculated polar for: E205  (10.48%)

 1 1 Reynolds number fixed          Mach number fixed         

 xtrf =   1.000 (top)        1.000 (bottom)
 Mach =   0.000     Re =     0.200 e 6     Ncrit =   9.000

  alpha     CL        CD       CDp       Cm    Top Xtr Bot Xtr   Cpmin    Chinge    XCp    
 ------- -------- --------- --------- -------- ------- ------- -------- --------- ---------
   0.000   0.3494   0.01001   0.00379  -0.0644  0.6608  1.0000  -0.6622   0.0000   0.4336
   1.000   0.4479   0.01072   0.00418  -0.0622  0.6288  1.0000  -0.7384   0.0000   0.3870
   2.000   0.5469   0.01118   0.00451  -0.0598  0.6021  1.0000  -0.8257   0.0000   0.3568
   3.000   0.6459   0.01213   0.00537  -0.0577  0.5747  1.0000  -0.9459   0.0000   0.3358
   4.000   0.7451   0.01260   0.00597  -0.0551  0.5464  1.0000  -1.1281   0.0000   0.3197
   5.000   0.8392   0.01226   0.00523  -0.0508  0.4781  1.0000  -1.4080   0.0000   0.3051
   6.000   0.9301   0.01267   0.00531  -0.0468  0.3915  1.0000  -1.9940   0.0000   0.2938
   7.000   1.0001   0.01531   0.00687  -0.0407  0.1893  1.0000  -2.6934   0.0000   0.2830
   8.000   1.0417   0.02067   0.01109  -0.0314  0.0132  1.0000  -3.3190   0.0000   0.2713
   9.000   1.0940   0.02425   0.01575  -0.0232  0.0126  1.0000  -3.9792   0.0000   0.2610
  10.000   1.0980   0.03090   0.02304  -0.0124  0.0123  1.0000  -4.3551   0.0000   0.2496
  11.000   1.1162   0.03908   0.03176  -0.0063  0.0130  1.0000  -4.7685   0.0000   0.2424
  12.000   1.1429   0.05095   0.04474  -0.0001  0.0160  1.0000  -4.9234   0.0000   0.2353
  13.000   1.0937   0.06994   0.06487  -0.0006  0.0186  1.0000  -4.6751   0.0000   0.2342
  14.000   1.0198   0.09416   0.08987  -0.0115  0.0195  1.0000  -4.3470   0.0000   0.2433
  15.000   0.9413   0.12674   0.12299  -0.0327  0.0194  1.0000  -3.7870   0.0000   0.2659


