XFLR5 v6.09.01 beta

 Calculated polar for: E205  (10.48%)

 1 1 Reynolds number fixed          Mach number fixed         

 xtrf =   1.000 (top)        1.000 (bottom)
 Mach =   0.000     Re =     0.180 e 6     Ncrit =   9.000

  alpha     CL        CD       CDp       Cm    Top Xtr Bot Xtr   Cpmin    Chinge    XCp    
 ------- -------- --------- --------- -------- ------- ------- -------- --------- ---------
   0.000   0.3503   0.01062   0.00417  -0.0650  0.6718  1.0000  -0.6607   0.0000   0.4347
   1.000   0.4482   0.01119   0.00445  -0.0625  0.6400  1.0000  -0.7367   0.0000   0.3876
   2.000   0.5465   0.01194   0.00508  -0.0603  0.6118  1.0000  -0.8231   0.0000   0.3577
   3.000   0.6452   0.01309   0.00606  -0.0580  0.5814  1.0000  -0.9432   0.0000   0.3364
   4.000   0.7434   0.01354   0.00679  -0.0554  0.5553  1.0000  -1.1232   0.0000   0.3202
   5.000   0.8401   0.01328   0.00631  -0.0516  0.5039  1.0000  -1.4035   0.0000   0.3061
   6.000   0.9310   0.01319   0.00581  -0.0470  0.4122  1.0000  -1.9961   0.0000   0.2940
   7.000   1.0081   0.01504   0.00686  -0.0415  0.2538  1.0000  -2.7172   0.0000   0.2835
   8.000   1.0401   0.02110   0.01129  -0.0313  0.0164  1.0000  -3.3077   0.0000   0.2712
   9.000   1.0944   0.02460   0.01584  -0.0234  0.0145  1.0000  -3.9955   0.0000   0.2612
  10.000   1.1009   0.03101   0.02293  -0.0127  0.0136  1.0000  -4.3838   0.0000   0.2498
  11.000   1.1136   0.03963   0.03212  -0.0063  0.0141  1.0000  -4.7359   0.0000   0.2424
  12.000   1.1380   0.05189   0.04550  -0.0001  0.0166  1.0000  -4.8746   0.0000   0.2353
  13.000   1.0922   0.07028   0.06499  -0.0008  0.0187  1.0000  -4.6821   0.0000   0.2343
  14.000   1.0198   0.09427   0.08977  -0.0114  0.0196  1.0000  -4.3634   0.0000   0.2432
  15.000   0.9407   0.12684   0.12290  -0.0326  0.0197  1.0000  -3.7918   0.0000   0.2658


